/*--------------------------------*- C++ -*----------------------------------*\
  =========                 |
  \\      /  F ield         | OpenFOAM: The Open Source CFD Toolbox
   \\    /   O peration     | Website:  https://openfoam.org
    \\  /    A nd           | Version:  11
     \\/     M anipulation  |
\*---------------------------------------------------------------------------*/
FoamFile
{
    format      binary;
    class       volScalarField;
    location    "0";
    object      p;
}
// * * * * * * * * * * * * * * * * * * * * * * * * * * * * * * * * * * * * * //

dimensions      [0 2 -2 0 0 0 0];
internalField   uniform 0; 

boundaryField
{
    inlet
    {
        type            freestreamPressure;
        freestreamValue uniform 0; 
    }

    outlet
    {
        type            fixedValue;
        value           uniform 0; 
    }

    "(symmetry|symmetry_side|symmetry_up)"
    {
        type            symmetry; 
    }

    // Condizione standard di gradiente nullo per tutte le pareti fisiche
"(road|monocoque|seat|main_hoop|headrest|driver|underbody|air_tank|front_suspension|rear_suspension|electric_motor_.*|wheel_.*|chassis_wing|front_supports|front_wing_.*|undertray_.*|rear_support|rear_wing_.*|vent_.*|diffuser_duct)"    {
        type            zeroGradient; 
    }
}
