/*--------------------------------*- C++ -*----------------------------------*\
  =========                 |
  \\      /  F ield         | OpenFOAM: The Open Source CFD Toolbox
   \\    /   O peration     | Website:  https://openfoam.org
    \\  /    A nd           | Version:  dev
     \\/     M anipulation  |
\*---------------------------------------------------------------------------*/
FoamFile
{
    format      ascii;
    class       dictionary;
    location    "system";
    object      fvSolution;
}
// * * * * * * * * * * * * * * * * * * * * * * * * * * * * * * * * * * * * * //

solvers
{
    p
    {
        solver          GAMG;
        smoother        GaussSeidel;
        tolerance       1e-7;
        relTol          0.01;
    }

    Phi
    {
        $p;
    }

    U
    {
        solver          smoothSolver;
        smoother        GaussSeidel;
        tolerance       1e-8;
        relTol          0.1;
        nSweeps         1;
    }

    k
    {
        solver          smoothSolver;
        smoother        GaussSeidel;
        tolerance       1e-8;
        relTol          0.1;
        nSweeps         1;
    }

    omega
    {
        solver          smoothSolver;
        smoother        GaussSeidel;
        tolerance       1e-8;
        relTol          0.1;
        nSweeps         1;
    }
}

SIMPLE
{
    nNonOrthogonalCorrectors 2; // Ridotto da 10 a 2: più stabile e veloce.
    consistent yes;

    residualControl
    {
        p               1e-4; // Per l'aerodinamica 1e-4 è lo standard "buono"
        U               1e-5;
        "(k|omega|nut)" 1e-5;
    }
}

relaxationFactors
{
    fields
    {
        p               0.2; 
    }
    equations
    {
        U               0.5; 
        k               0.2;
        omega           0.2;
    }

}

potentialFlow
{
    nNonOrthogonalCorrectors 3;
}


cache
{
    grad(U);
}

// ************************************************************************* //
